
            <routes>
                <vType id="0" accel="2" decel="4.5" sigma="0.5" length="5" minGap="2.5" maxSpeed="14" guiShape="passenger"/>
                <vType id="1" accel="2" decel="4.5" sigma="0.5" length="3" minGap="2.5" maxSpeed="14" guiShape="passenger"/>
                <vType id="2" accel="2" decel="4.5" sigma="0.5" length="4" minGap="2.5" maxSpeed="14" guiShape="passenger"/>
                <vType id="3" accel="2" decel="4.5" sigma="0.5" length="10" minGap="3" maxSpeed="14" guiShape="bus"/>

                <route id="0" edges="west_right north_up" />
                <route id="1" edges="west_right east_right" />
                <route id="2" edges="west_right south_down" />

                <route id="3" edges="north_down east_right" />
                <route id="4" edges="north_down south_down" />
                <route id="5" edges="north_down west_left" />

                <route id="6" edges="east_left south_down" />
                <route id="7" edges="east_left west_left" />
                <route id="8" edges="east_left north_up" />

                <route id="9" edges="south_up west_left" />
                <route id="10" edges="south_up north_up" />
                <route id="11" edges="south_up east_right" />

            
    <vehicle id="veh_0" type="0" route="11" color="0.000000,1.000000,1.000000" depart="0" />
    <vehicle id="veh_1" type="1" route="0" color="1.000000,0.000000,0.000000" depart="4" />
    <vehicle id="veh_2" type="0" route="9" color="0.000000,0.000000,1.000000" depart="8" />
    <vehicle id="veh_3" type="1" route="7" color="1.000000,1.000000,1.000000" depart="11" />
    <vehicle id="veh_4" type="2" route="9" color="1.000000,1.000000,0.000000" depart="19" />
    <vehicle id="veh_5" type="1" route="6" color="0.000000,1.000000,0.000000" depart="21" />
    <vehicle id="veh_6" type="2" route="4" color="1.000000,1.000000,1.000000" depart="25" />
    <vehicle id="veh_7" type="1" route="6" color="0.000000,0.000000,1.000000" depart="31" />
    <vehicle id="veh_8" type="0" route="9" color="1.000000,1.000000,1.000000" depart="39" />
    <vehicle id="veh_9" type="2" route="9" color="0.000000,1.000000,1.000000" depart="47" />
    <vehicle id="veh_10" type="0" route="4" color="1.000000,0.000000,0.000000" depart="48" />
    <vehicle id="veh_11" type="1" route="0" color="1.000000,0.000000,0.000000" depart="50" />
    <vehicle id="veh_12" type="1" route="2" color="0.000000,1.000000,1.000000" depart="54" />
    <vehicle id="veh_13" type="3" route="11" color="0.000000,1.000000,1.000000" depart="57" />
    <vehicle id="veh_14" type="2" route="0" color="1.000000,1.000000,0.000000" depart="58" />
    <vehicle id="veh_15" type="1" route="3" color="1.000000,1.000000,1.000000" depart="59" />
    <vehicle id="veh_16" type="0" route="4" color="1.000000,0.000000,1.000000" depart="60" />
    <vehicle id="veh_17" type="3" route="7" color="0.000000,0.000000,1.000000" depart="62" />
    <vehicle id="veh_18" type="1" route="5" color="0.000000,1.000000,1.000000" depart="65" />
    <vehicle id="veh_19" type="1" route="8" color="1.000000,1.000000,1.000000" depart="66" />
    <vehicle id="veh_20" type="3" route="6" color="0.000000,0.000000,1.000000" depart="72" />
    <vehicle id="veh_21" type="0" route="3" color="1.000000,0.000000,1.000000" depart="80" />
    <vehicle id="veh_22" type="1" route="10" color="1.000000,1.000000,0.000000" depart="83" />
    <vehicle id="veh_23" type="0" route="7" color="1.000000,0.000000,1.000000" depart="88" />
    <vehicle id="veh_24" type="3" route="10" color="1.000000,0.000000,0.000000" depart="115" />
    <vehicle id="veh_25" type="0" route="5" color="0.000000,1.000000,0.000000" depart="116" />
    <vehicle id="veh_26" type="2" route="5" color="1.000000,0.000000,0.000000" depart="122" />
    <vehicle id="veh_27" type="2" route="6" color="1.000000,0.000000,1.000000" depart="122" />
    <vehicle id="veh_28" type="2" route="7" color="1.000000,1.000000,1.000000" depart="133" />
    <vehicle id="veh_29" type="3" route="11" color="0.000000,0.000000,1.000000" depart="136" />
    <vehicle id="veh_30" type="3" route="5" color="0.000000,0.000000,1.000000" depart="140" />
    <vehicle id="veh_31" type="1" route="8" color="0.000000,0.000000,1.000000" depart="142" />
    <vehicle id="veh_32" type="0" route="4" color="1.000000,0.000000,0.000000" depart="145" />
    <vehicle id="veh_33" type="3" route="4" color="1.000000,1.000000,1.000000" depart="153" />
    <vehicle id="veh_34" type="0" route="9" color="1.000000,1.000000,1.000000" depart="159" />
    <vehicle id="veh_35" type="3" route="5" color="1.000000,0.000000,0.000000" depart="160" />
    <vehicle id="veh_36" type="1" route="8" color="1.000000,0.000000,1.000000" depart="162" />
    <vehicle id="veh_37" type="2" route="8" color="1.000000,1.000000,1.000000" depart="166" />
    <vehicle id="veh_38" type="1" route="6" color="1.000000,0.000000,0.000000" depart="170" />
    <vehicle id="veh_39" type="0" route="9" color="1.000000,0.000000,0.000000" depart="173" />
    <vehicle id="veh_40" type="0" route="10" color="0.000000,0.000000,1.000000" depart="176" />
    <vehicle id="veh_41" type="1" route="7" color="1.000000,0.000000,1.000000" depart="180" />
    <vehicle id="veh_42" type="2" route="6" color="1.000000,0.000000,0.000000" depart="190" />
    <vehicle id="veh_43" type="3" route="5" color="1.000000,1.000000,0.000000" depart="204" />
    <vehicle id="veh_44" type="3" route="11" color="0.000000,1.000000,0.000000" depart="208" />
    <vehicle id="veh_45" type="1" route="0" color="0.000000,1.000000,1.000000" depart="212" />
    <vehicle id="veh_46" type="2" route="2" color="0.000000,0.000000,1.000000" depart="227" />
    <vehicle id="veh_47" type="2" route="1" color="1.000000,0.000000,1.000000" depart="234" />
    <vehicle id="veh_48" type="2" route="0" color="1.000000,1.000000,1.000000" depart="239" />
    <vehicle id="veh_49" type="0" route="11" color="1.000000,0.000000,1.000000" depart="239" />
    <vehicle id="veh_50" type="3" route="9" color="1.000000,0.000000,1.000000" depart="243" />
    <vehicle id="veh_51" type="2" route="6" color="0.000000,1.000000,0.000000" depart="246" />
    <vehicle id="veh_52" type="0" route="0" color="1.000000,0.000000,0.000000" depart="263" />
    <vehicle id="veh_53" type="2" route="7" color="0.000000,1.000000,1.000000" depart="271" />
    <vehicle id="veh_54" type="1" route="7" color="0.000000,0.000000,1.000000" depart="272" />
    <vehicle id="veh_55" type="0" route="11" color="0.000000,0.000000,1.000000" depart="274" />
    <vehicle id="veh_56" type="3" route="2" color="1.000000,0.000000,0.000000" depart="280" />
    <vehicle id="veh_57" type="3" route="9" color="0.000000,0.000000,1.000000" depart="283" />
    <vehicle id="veh_58" type="3" route="6" color="0.000000,0.000000,1.000000" depart="287" />
    <vehicle id="veh_59" type="3" route="4" color="0.000000,1.000000,1.000000" depart="291" />
    <vehicle id="veh_60" type="3" route="8" color="0.000000,1.000000,1.000000" depart="295" />
    <vehicle id="veh_61" type="3" route="5" color="1.000000,1.000000,1.000000" depart="296" />
    <vehicle id="veh_62" type="2" route="8" color="1.000000,1.000000,1.000000" depart="305" />
    <vehicle id="veh_63" type="3" route="6" color="0.000000,1.000000,1.000000" depart="309" />
    <vehicle id="veh_64" type="0" route="2" color="1.000000,0.000000,0.000000" depart="316" />
    <vehicle id="veh_65" type="0" route="3" color="1.000000,0.000000,0.000000" depart="317" />
    <vehicle id="veh_66" type="0" route="10" color="1.000000,0.000000,0.000000" depart="325" />
    <vehicle id="veh_67" type="0" route="4" color="0.000000,0.000000,1.000000" depart="327" />
    <vehicle id="veh_68" type="0" route="1" color="1.000000,0.000000,1.000000" depart="330" />
    <vehicle id="veh_69" type="2" route="7" color="0.000000,1.000000,0.000000" depart="333" />
    <vehicle id="veh_70" type="1" route="11" color="1.000000,0.000000,0.000000" depart="335" />
    <vehicle id="veh_71" type="1" route="7" color="1.000000,0.000000,0.000000" depart="355" />
    <vehicle id="veh_72" type="2" route="2" color="0.000000,0.000000,1.000000" depart="380" />
    <vehicle id="veh_73" type="2" route="0" color="1.000000,0.000000,1.000000" depart="382" />
    <vehicle id="veh_74" type="1" route="5" color="0.000000,1.000000,0.000000" depart="384" />
    <vehicle id="veh_75" type="2" route="7" color="1.000000,1.000000,1.000000" depart="387" />
    <vehicle id="veh_76" type="3" route="3" color="0.000000,0.000000,1.000000" depart="388" />
    <vehicle id="veh_77" type="1" route="2" color="1.000000,1.000000,0.000000" depart="389" />
    <vehicle id="veh_78" type="2" route="2" color="1.000000,0.000000,0.000000" depart="391" />
    <vehicle id="veh_79" type="2" route="7" color="1.000000,0.000000,0.000000" depart="399" />
    <vehicle id="veh_80" type="0" route="11" color="1.000000,1.000000,1.000000" depart="399" />
    <vehicle id="veh_81" type="2" route="7" color="1.000000,1.000000,1.000000" depart="402" />
    <vehicle id="veh_82" type="2" route="6" color="1.000000,0.000000,0.000000" depart="413" />
    <vehicle id="veh_83" type="2" route="3" color="0.000000,1.000000,1.000000" depart="417" />
    <vehicle id="veh_84" type="1" route="7" color="0.000000,0.000000,1.000000" depart="420" />
    <vehicle id="veh_85" type="2" route="11" color="0.000000,0.000000,1.000000" depart="420" />
    <vehicle id="veh_86" type="2" route="0" color="1.000000,1.000000,0.000000" depart="421" />
    <vehicle id="veh_87" type="2" route="11" color="1.000000,1.000000,0.000000" depart="432" />
    <vehicle id="veh_88" type="1" route="9" color="0.000000,0.000000,1.000000" depart="436" />
    <vehicle id="veh_89" type="1" route="10" color="0.000000,1.000000,0.000000" depart="443" />
    <vehicle id="veh_90" type="0" route="11" color="1.000000,0.000000,1.000000" depart="449" />
    <vehicle id="veh_91" type="1" route="0" color="0.000000,1.000000,0.000000" depart="450" />
    <vehicle id="veh_92" type="3" route="4" color="1.000000,0.000000,0.000000" depart="454" />
    <vehicle id="veh_93" type="3" route="2" color="1.000000,0.000000,0.000000" depart="460" />
    <vehicle id="veh_94" type="0" route="1" color="1.000000,0.000000,0.000000" depart="469" />
    <vehicle id="veh_95" type="2" route="5" color="1.000000,0.000000,0.000000" depart="470" />
    <vehicle id="veh_96" type="0" route="9" color="1.000000,0.000000,0.000000" depart="473" />
    <vehicle id="veh_97" type="3" route="6" color="0.000000,0.000000,1.000000" depart="474" />
    <vehicle id="veh_98" type="0" route="5" color="1.000000,1.000000,0.000000" depart="475" />
    <vehicle id="veh_99" type="3" route="2" color="1.000000,1.000000,1.000000" depart="476" />
    <vehicle id="veh_100" type="1" route="6" color="0.000000,1.000000,1.000000" depart="479" />
    <vehicle id="veh_101" type="1" route="8" color="1.000000,1.000000,1.000000" depart="488" />
    <vehicle id="veh_102" type="1" route="9" color="0.000000,0.000000,1.000000" depart="495" />
    <vehicle id="veh_103" type="1" route="0" color="1.000000,1.000000,0.000000" depart="496" />
    <vehicle id="veh_104" type="1" route="3" color="1.000000,0.000000,0.000000" depart="499" />
    <vehicle id="veh_105" type="0" route="3" color="1.000000,1.000000,0.000000" depart="502" />
    <vehicle id="veh_106" type="2" route="11" color="1.000000,1.000000,0.000000" depart="505" />
    <vehicle id="veh_107" type="0" route="7" color="0.000000,1.000000,1.000000" depart="507" />
    <vehicle id="veh_108" type="0" route="2" color="0.000000,1.000000,1.000000" depart="509" />
    <vehicle id="veh_109" type="3" route="4" color="0.000000,1.000000,1.000000" depart="509" />
    <vehicle id="veh_110" type="2" route="6" color="0.000000,1.000000,1.000000" depart="509" />
    <vehicle id="veh_111" type="3" route="6" color="1.000000,1.000000,1.000000" depart="512" />
    <vehicle id="veh_112" type="3" route="2" color="1.000000,0.000000,0.000000" depart="514" />
    <vehicle id="veh_113" type="3" route="1" color="0.000000,1.000000,1.000000" depart="516" />
    <vehicle id="veh_114" type="1" route="4" color="0.000000,0.000000,1.000000" depart="518" />
    <vehicle id="veh_115" type="2" route="1" color="1.000000,1.000000,1.000000" depart="541" />
    <vehicle id="veh_116" type="1" route="10" color="1.000000,0.000000,0.000000" depart="546" />
    <vehicle id="veh_117" type="0" route="0" color="1.000000,0.000000,1.000000" depart="551" />
    <vehicle id="veh_118" type="3" route="0" color="0.000000,1.000000,1.000000" depart="556" />
    <vehicle id="veh_119" type="2" route="9" color="0.000000,1.000000,0.000000" depart="556" />
    <vehicle id="veh_120" type="3" route="1" color="0.000000,1.000000,0.000000" depart="559" />
    <vehicle id="veh_121" type="1" route="2" color="1.000000,1.000000,1.000000" depart="564" />
    <vehicle id="veh_122" type="0" route="0" color="1.000000,0.000000,1.000000" depart="570" />
    <vehicle id="veh_123" type="0" route="2" color="1.000000,0.000000,1.000000" depart="572" />
    <vehicle id="veh_124" type="2" route="11" color="1.000000,0.000000,0.000000" depart="574" />
    <vehicle id="veh_125" type="0" route="10" color="1.000000,0.000000,0.000000" depart="576" />
    <vehicle id="veh_126" type="2" route="5" color="0.000000,1.000000,0.000000" depart="584" />
    <vehicle id="veh_127" type="1" route="11" color="1.000000,1.000000,0.000000" depart="584" />
    <vehicle id="veh_128" type="3" route="4" color="1.000000,0.000000,0.000000" depart="586" />
    <vehicle id="veh_129" type="0" route="4" color="1.000000,0.000000,1.000000" depart="594" />
    <vehicle id="veh_130" type="1" route="1" color="1.000000,1.000000,0.000000" depart="595" />
    <vehicle id="veh_131" type="0" route="11" color="0.000000,1.000000,0.000000" depart="606" />
    <vehicle id="veh_132" type="0" route="8" color="0.000000,1.000000,0.000000" depart="607" />
    <vehicle id="veh_133" type="2" route="8" color="0.000000,1.000000,0.000000" depart="609" />
    <vehicle id="veh_134" type="3" route="11" color="1.000000,0.000000,0.000000" depart="611" />
    <vehicle id="veh_135" type="0" route="2" color="0.000000,0.000000,1.000000" depart="614" />
    <vehicle id="veh_136" type="0" route="6" color="1.000000,0.000000,1.000000" depart="618" />
    <vehicle id="veh_137" type="1" route="5" color="0.000000,1.000000,1.000000" depart="630" />
    <vehicle id="veh_138" type="2" route="6" color="0.000000,0.000000,1.000000" depart="631" />
    <vehicle id="veh_139" type="0" route="7" color="1.000000,1.000000,0.000000" depart="640" />
    <vehicle id="veh_140" type="0" route="8" color="0.000000,1.000000,1.000000" depart="642" />
    <vehicle id="veh_141" type="1" route="3" color="0.000000,1.000000,0.000000" depart="643" />
    <vehicle id="veh_142" type="3" route="8" color="1.000000,0.000000,0.000000" depart="646" />
    <vehicle id="veh_143" type="3" route="10" color="0.000000,1.000000,1.000000" depart="652" />
    <vehicle id="veh_144" type="1" route="3" color="1.000000,0.000000,0.000000" depart="653" />
    <vehicle id="veh_145" type="3" route="10" color="0.000000,0.000000,1.000000" depart="653" />
    <vehicle id="veh_146" type="0" route="3" color="1.000000,1.000000,0.000000" depart="669" />
    <vehicle id="veh_147" type="0" route="1" color="1.000000,1.000000,1.000000" depart="671" />
    <vehicle id="veh_148" type="3" route="0" color="0.000000,0.000000,1.000000" depart="678" />
    <vehicle id="veh_149" type="0" route="6" color="1.000000,1.000000,0.000000" depart="679" />
    <vehicle id="veh_150" type="0" route="10" color="0.000000,1.000000,0.000000" depart="679" />
    <vehicle id="veh_151" type="0" route="7" color="0.000000,1.000000,0.000000" depart="681" />
    <vehicle id="veh_152" type="1" route="3" color="1.000000,0.000000,0.000000" depart="683" />
    <vehicle id="veh_153" type="2" route="11" color="1.000000,0.000000,0.000000" depart="693" />
    <vehicle id="veh_154" type="1" route="2" color="0.000000,0.000000,1.000000" depart="694" />
    <vehicle id="veh_155" type="0" route="9" color="0.000000,1.000000,1.000000" depart="697" />
    <vehicle id="veh_156" type="1" route="8" color="0.000000,0.000000,1.000000" depart="707" />
    <vehicle id="veh_157" type="3" route="10" color="0.000000,1.000000,1.000000" depart="711" />
    <vehicle id="veh_158" type="0" route="2" color="1.000000,1.000000,0.000000" depart="734" />
    <vehicle id="veh_159" type="0" route="6" color="0.000000,1.000000,0.000000" depart="734" />
    <vehicle id="veh_160" type="2" route="3" color="0.000000,1.000000,1.000000" depart="739" />
    <vehicle id="veh_161" type="1" route="10" color="0.000000,1.000000,0.000000" depart="745" />
    <vehicle id="veh_162" type="2" route="7" color="1.000000,0.000000,0.000000" depart="746" />
    <vehicle id="veh_163" type="3" route="10" color="1.000000,0.000000,0.000000" depart="747" />
    <vehicle id="veh_164" type="3" route="7" color="0.000000,0.000000,1.000000" depart="749" />
    <vehicle id="veh_165" type="0" route="1" color="1.000000,1.000000,0.000000" depart="754" />
    <vehicle id="veh_166" type="3" route="7" color="1.000000,0.000000,0.000000" depart="755" />
    <vehicle id="veh_167" type="1" route="3" color="1.000000,1.000000,0.000000" depart="758" />
    <vehicle id="veh_168" type="0" route="7" color="0.000000,1.000000,1.000000" depart="762" />
    <vehicle id="veh_169" type="1" route="4" color="0.000000,1.000000,1.000000" depart="766" />
    <vehicle id="veh_170" type="0" route="0" color="1.000000,1.000000,1.000000" depart="767" />
    <vehicle id="veh_171" type="0" route="6" color="0.000000,1.000000,1.000000" depart="771" />
    <vehicle id="veh_172" type="1" route="1" color="1.000000,1.000000,0.000000" depart="790" />
    <vehicle id="veh_173" type="1" route="4" color="1.000000,0.000000,1.000000" depart="800" />
    <vehicle id="veh_174" type="2" route="8" color="0.000000,0.000000,1.000000" depart="801" />
    <vehicle id="veh_175" type="1" route="10" color="0.000000,0.000000,1.000000" depart="802" />
    <vehicle id="veh_176" type="3" route="9" color="1.000000,0.000000,0.000000" depart="813" />
    <vehicle id="veh_177" type="0" route="9" color="1.000000,0.000000,0.000000" depart="823" />
    <vehicle id="veh_178" type="3" route="10" color="0.000000,0.000000,1.000000" depart="825" />
    <vehicle id="veh_179" type="2" route="3" color="0.000000,0.000000,1.000000" depart="826" />
    <vehicle id="veh_180" type="2" route="4" color="1.000000,0.000000,0.000000" depart="831" />
    <vehicle id="veh_181" type="1" route="3" color="0.000000,0.000000,1.000000" depart="854" />
    <vehicle id="veh_182" type="3" route="1" color="1.000000,1.000000,1.000000" depart="863" />
    <vehicle id="veh_183" type="0" route="3" color="1.000000,1.000000,0.000000" depart="869" />
    <vehicle id="veh_184" type="3" route="10" color="1.000000,1.000000,0.000000" depart="875" />
    <vehicle id="veh_185" type="0" route="5" color="1.000000,0.000000,1.000000" depart="879" />
    <vehicle id="veh_186" type="3" route="0" color="1.000000,1.000000,1.000000" depart="881" />
    <vehicle id="veh_187" type="1" route="9" color="0.000000,1.000000,0.000000" depart="896" />
    <vehicle id="veh_188" type="0" route="3" color="1.000000,1.000000,1.000000" depart="911" />
    <vehicle id="veh_189" type="3" route="0" color="0.000000,1.000000,1.000000" depart="917" />
    <vehicle id="veh_190" type="0" route="5" color="0.000000,0.000000,1.000000" depart="920" />
    <vehicle id="veh_191" type="2" route="10" color="0.000000,1.000000,0.000000" depart="926" />
    <vehicle id="veh_192" type="3" route="4" color="1.000000,1.000000,1.000000" depart="933" />
    <vehicle id="veh_193" type="3" route="4" color="1.000000,0.000000,0.000000" depart="937" />
    <vehicle id="veh_194" type="1" route="3" color="1.000000,1.000000,1.000000" depart="940" />
    <vehicle id="veh_195" type="2" route="1" color="1.000000,0.000000,0.000000" depart="943" />
    <vehicle id="veh_196" type="2" route="4" color="0.000000,1.000000,1.000000" depart="953" />
    <vehicle id="veh_197" type="3" route="8" color="1.000000,1.000000,0.000000" depart="959" />
    <vehicle id="veh_198" type="0" route="11" color="0.000000,0.000000,1.000000" depart="959" />
    <vehicle id="veh_199" type="0" route="4" color="1.000000,0.000000,1.000000" depart="969" />
    <vehicle id="veh_200" type="1" route="10" color="1.000000,1.000000,0.000000" depart="975" />
    <vehicle id="veh_201" type="1" route="3" color="0.000000,1.000000,0.000000" depart="980" />
    <vehicle id="veh_202" type="3" route="3" color="1.000000,0.000000,1.000000" depart="986" />
    <vehicle id="veh_203" type="1" route="2" color="1.000000,0.000000,0.000000" depart="994" />
    <vehicle id="veh_204" type="1" route="0" color="1.000000,1.000000,0.000000" depart="997" />
    <vehicle id="veh_205" type="0" route="1" color="1.000000,1.000000,1.000000" depart="998" />
    <vehicle id="veh_206" type="0" route="4" color="1.000000,0.000000,1.000000" depart="1002" />
    <vehicle id="veh_207" type="2" route="0" color="1.000000,0.000000,1.000000" depart="1005" />
    <vehicle id="veh_208" type="2" route="10" color="1.000000,1.000000,1.000000" depart="1005" />
    <vehicle id="veh_209" type="1" route="0" color="1.000000,1.000000,1.000000" depart="1021" />
    <vehicle id="veh_210" type="3" route="7" color="0.000000,1.000000,0.000000" depart="1031" />
    <vehicle id="veh_211" type="3" route="8" color="0.000000,1.000000,1.000000" depart="1033" />
    <vehicle id="veh_212" type="2" route="6" color="1.000000,1.000000,0.000000" depart="1041" />
    <vehicle id="veh_213" type="2" route="2" color="0.000000,0.000000,1.000000" depart="1049" />
    <vehicle id="veh_214" type="3" route="4" color="1.000000,0.000000,0.000000" depart="1051" />
    <vehicle id="veh_215" type="3" route="7" color="1.000000,1.000000,0.000000" depart="1053" />
    <vehicle id="veh_216" type="1" route="4" color="0.000000,1.000000,0.000000" depart="1058" />
    <vehicle id="veh_217" type="0" route="9" color="1.000000,1.000000,0.000000" depart="1060" />
    <vehicle id="veh_218" type="3" route="5" color="0.000000,1.000000,0.000000" depart="1070" />
    <vehicle id="veh_219" type="1" route="0" color="1.000000,0.000000,1.000000" depart="1072" />
    <vehicle id="veh_220" type="2" route="8" color="0.000000,1.000000,0.000000" depart="1072" />
    <vehicle id="veh_221" type="1" route="5" color="0.000000,1.000000,1.000000" depart="1073" />
    <vehicle id="veh_222" type="1" route="8" color="1.000000,0.000000,0.000000" depart="1074" />
    <vehicle id="veh_223" type="0" route="8" color="0.000000,0.000000,1.000000" depart="1090" />
    <vehicle id="veh_224" type="1" route="6" color="1.000000,0.000000,0.000000" depart="1091" />
    <vehicle id="veh_225" type="3" route="11" color="1.000000,0.000000,1.000000" depart="1097" />
    <vehicle id="veh_226" type="3" route="7" color="0.000000,0.000000,1.000000" depart="1105" />
    <vehicle id="veh_227" type="2" route="2" color="0.000000,0.000000,1.000000" depart="1108" />
    <vehicle id="veh_228" type="1" route="9" color="1.000000,0.000000,1.000000" depart="1109" />
    <vehicle id="veh_229" type="3" route="1" color="0.000000,1.000000,0.000000" depart="1111" />
    <vehicle id="veh_230" type="2" route="10" color="0.000000,1.000000,0.000000" depart="1111" />
    <vehicle id="veh_231" type="2" route="10" color="1.000000,0.000000,1.000000" depart="1113" />
    <vehicle id="veh_232" type="0" route="0" color="1.000000,1.000000,0.000000" depart="1119" />
    <vehicle id="veh_233" type="3" route="0" color="1.000000,1.000000,0.000000" depart="1120" />
    <vehicle id="veh_234" type="1" route="1" color="0.000000,0.000000,1.000000" depart="1121" />
    <vehicle id="veh_235" type="3" route="1" color="1.000000,0.000000,0.000000" depart="1122" />
    <vehicle id="veh_236" type="1" route="0" color="1.000000,0.000000,1.000000" depart="1127" />
    <vehicle id="veh_237" type="3" route="8" color="1.000000,1.000000,0.000000" depart="1133" />
    <vehicle id="veh_238" type="1" route="10" color="1.000000,0.000000,1.000000" depart="1133" />
    <vehicle id="veh_239" type="1" route="7" color="1.000000,0.000000,1.000000" depart="1139" />
    <vehicle id="veh_240" type="0" route="11" color="1.000000,0.000000,1.000000" depart="1140" />
    <vehicle id="veh_241" type="2" route="7" color="0.000000,1.000000,1.000000" depart="1144" />
    <vehicle id="veh_242" type="1" route="6" color="1.000000,0.000000,0.000000" depart="1161" />
    <vehicle id="veh_243" type="1" route="1" color="1.000000,0.000000,0.000000" depart="1164" />
    <vehicle id="veh_244" type="3" route="5" color="1.000000,0.000000,0.000000" depart="1181" />
    <vehicle id="veh_245" type="3" route="3" color="0.000000,0.000000,1.000000" depart="1182" />
    <vehicle id="veh_246" type="3" route="5" color="1.000000,1.000000,1.000000" depart="1183" />
    <vehicle id="veh_247" type="3" route="1" color="1.000000,1.000000,0.000000" depart="1184" />
    <vehicle id="veh_248" type="2" route="10" color="0.000000,0.000000,1.000000" depart="1186" />
    <vehicle id="veh_249" type="2" route="9" color="0.000000,0.000000,1.000000" depart="1187" />
    <vehicle id="veh_250" type="3" route="7" color="0.000000,1.000000,0.000000" depart="1188" />
    <vehicle id="veh_251" type="0" route="6" color="0.000000,0.000000,1.000000" depart="1191" />
    <vehicle id="veh_252" type="1" route="7" color="1.000000,0.000000,0.000000" depart="1197" />
    <vehicle id="veh_253" type="0" route="4" color="0.000000,1.000000,1.000000" depart="1228" />
    <vehicle id="veh_254" type="3" route="6" color="0.000000,1.000000,0.000000" depart="1229" />
    <vehicle id="veh_255" type="3" route="2" color="1.000000,0.000000,0.000000" depart="1237" />
    <vehicle id="veh_256" type="2" route="1" color="1.000000,0.000000,1.000000" depart="1241" />
    <vehicle id="veh_257" type="1" route="6" color="0.000000,1.000000,0.000000" depart="1242" />
    <vehicle id="veh_258" type="2" route="2" color="0.000000,1.000000,0.000000" depart="1244" />
    <vehicle id="veh_259" type="1" route="9" color="1.000000,1.000000,1.000000" depart="1252" />
    <vehicle id="veh_260" type="3" route="8" color="0.000000,1.000000,1.000000" depart="1259" />
    <vehicle id="veh_261" type="1" route="7" color="1.000000,1.000000,0.000000" depart="1261" />
    <vehicle id="veh_262" type="3" route="6" color="0.000000,1.000000,0.000000" depart="1267" />
    <vehicle id="veh_263" type="0" route="11" color="0.000000,0.000000,1.000000" depart="1269" />
    <vehicle id="veh_264" type="2" route="3" color="0.000000,1.000000,0.000000" depart="1273" />
    <vehicle id="veh_265" type="2" route="6" color="1.000000,1.000000,1.000000" depart="1274" />
    <vehicle id="veh_266" type="2" route="3" color="0.000000,1.000000,0.000000" depart="1295" />
    <vehicle id="veh_267" type="2" route="4" color="0.000000,1.000000,1.000000" depart="1296" />
    <vehicle id="veh_268" type="1" route="7" color="1.000000,1.000000,0.000000" depart="1299" />
    <vehicle id="veh_269" type="0" route="3" color="1.000000,1.000000,0.000000" depart="1312" />
    <vehicle id="veh_270" type="2" route="9" color="1.000000,0.000000,0.000000" depart="1315" />
    <vehicle id="veh_271" type="1" route="7" color="0.000000,1.000000,1.000000" depart="1321" />
    <vehicle id="veh_272" type="1" route="4" color="0.000000,1.000000,0.000000" depart="1322" />
    <vehicle id="veh_273" type="1" route="9" color="1.000000,0.000000,1.000000" depart="1333" />
    <vehicle id="veh_274" type="3" route="9" color="1.000000,1.000000,0.000000" depart="1339" />
    <vehicle id="veh_275" type="2" route="2" color="1.000000,1.000000,0.000000" depart="1342" />
    <vehicle id="veh_276" type="3" route="4" color="1.000000,0.000000,0.000000" depart="1344" />
    <vehicle id="veh_277" type="0" route="7" color="0.000000,0.000000,1.000000" depart="1345" />
    <vehicle id="veh_278" type="2" route="5" color="1.000000,0.000000,0.000000" depart="1349" />
    <vehicle id="veh_279" type="3" route="5" color="1.000000,1.000000,0.000000" depart="1354" />
    <vehicle id="veh_280" type="2" route="9" color="1.000000,1.000000,0.000000" depart="1357" />
    <vehicle id="veh_281" type="3" route="8" color="1.000000,0.000000,0.000000" depart="1365" />
    <vehicle id="veh_282" type="3" route="3" color="0.000000,1.000000,0.000000" depart="1370" />
    <vehicle id="veh_283" type="3" route="5" color="1.000000,1.000000,1.000000" depart="1380" />
    <vehicle id="veh_284" type="1" route="5" color="0.000000,1.000000,0.000000" depart="1382" />
    <vehicle id="veh_285" type="0" route="7" color="1.000000,0.000000,1.000000" depart="1390" />
    <vehicle id="veh_286" type="2" route="0" color="1.000000,1.000000,1.000000" depart="1391" />
    <vehicle id="veh_287" type="0" route="0" color="0.000000,1.000000,0.000000" depart="1411" />
    <vehicle id="veh_288" type="1" route="0" color="1.000000,0.000000,0.000000" depart="1445" />
    <vehicle id="veh_289" type="0" route="9" color="1.000000,0.000000,0.000000" depart="1452" />
    <vehicle id="veh_290" type="3" route="9" color="0.000000,1.000000,0.000000" depart="1457" />
    <vehicle id="veh_291" type="1" route="7" color="0.000000,0.000000,1.000000" depart="1467" />
    <vehicle id="veh_292" type="1" route="4" color="1.000000,0.000000,0.000000" depart="1468" />
    <vehicle id="veh_293" type="2" route="7" color="0.000000,1.000000,0.000000" depart="1478" />
    <vehicle id="veh_294" type="3" route="11" color="0.000000,1.000000,0.000000" depart="1479" />
    <vehicle id="veh_295" type="1" route="8" color="0.000000,1.000000,0.000000" depart="1484" />
    <vehicle id="veh_296" type="2" route="10" color="1.000000,0.000000,1.000000" depart="1484" />
    <vehicle id="veh_297" type="0" route="6" color="0.000000,0.000000,1.000000" depart="1485" />
    <vehicle id="veh_298" type="0" route="0" color="1.000000,0.000000,0.000000" depart="1489" />