
            <routes>
                <vType id="0" accel="2" decel="4.5" sigma="0.5" length="5" minGap="2.5" maxSpeed="14" guiShape="passenger"/>
                <vType id="1" accel="2" decel="4.5" sigma="0.5" length="3" minGap="2.5" maxSpeed="14" guiShape="passenger"/>
                <vType id="2" accel="2" decel="4.5" sigma="0.5" length="4" minGap="2.5" maxSpeed="14" guiShape="passenger"/>
                <vType id="3" accel="2" decel="4.5" sigma="0.5" length="10" minGap="3" maxSpeed="14" guiShape="bus"/>

                <route id="0" edges="west_right north_up" />
                <route id="1" edges="west_right east_right" />
                <route id="2" edges="west_right south_down" />

                <route id="3" edges="north_down east_right" />
                <route id="4" edges="north_down south_down" />
                <route id="5" edges="north_down west_left" />

                <route id="6" edges="east_left south_down" />
                <route id="7" edges="east_left west_left" />
                <route id="8" edges="east_left north_up" />

                <route id="9" edges="south_up west_left" />
                <route id="10" edges="south_up north_up" />
                <route id="11" edges="south_up east_right" />

            
    <vehicle id="veh_0" type="0" route="0" color="0.000000,1.000000,0.000000" depart="61" />
    <vehicle id="veh_1" type="1" route="5" color="0.000000,1.000000,1.000000" depart="61" />
    <vehicle id="veh_2" type="1" route="0" color="1.000000,0.000000,1.000000" depart="65" />
    <vehicle id="veh_3" type="2" route="5" color="0.000000,1.000000,0.000000" depart="65" />
    <vehicle id="veh_4" type="3" route="2" color="0.000000,1.000000,0.000000" depart="67" />
    <vehicle id="veh_5" type="3" route="4" color="1.000000,0.000000,1.000000" depart="67" />
    <vehicle id="veh_6" type="2" route="2" color="1.000000,0.000000,0.000000" depart="68" />
    <vehicle id="veh_7" type="3" route="5" color="1.000000,0.000000,1.000000" depart="68" />
    <vehicle id="veh_8" type="1" route="0" color="0.000000,1.000000,1.000000" depart="69" />
    <vehicle id="veh_9" type="3" route="5" color="0.000000,0.000000,1.000000" depart="69" />
    <vehicle id="veh_10" type="3" route="0" color="1.000000,1.000000,1.000000" depart="75" />
    <vehicle id="veh_11" type="3" route="5" color="0.000000,1.000000,0.000000" depart="75" />
    <vehicle id="veh_12" type="1" route="0" color="1.000000,0.000000,0.000000" depart="78" />
    <vehicle id="veh_13" type="2" route="5" color="0.000000,1.000000,0.000000" depart="78" />
    <vehicle id="veh_14" type="1" route="2" color="0.000000,1.000000,1.000000" depart="79" />
    <vehicle id="veh_15" type="2" route="5" color="1.000000,1.000000,1.000000" depart="79" />
    <vehicle id="veh_16" type="0" route="2" color="0.000000,1.000000,1.000000" depart="84" />
    <vehicle id="veh_17" type="0" route="5" color="1.000000,0.000000,0.000000" depart="84" />
    <vehicle id="veh_18" type="0" route="0" color="0.000000,1.000000,1.000000" depart="87" />
    <vehicle id="veh_19" type="1" route="4" color="1.000000,0.000000,1.000000" depart="87" />
    <vehicle id="veh_20" type="2" route="0" color="1.000000,0.000000,1.000000" depart="89" />
    <vehicle id="veh_21" type="3" route="3" color="0.000000,1.000000,1.000000" depart="89" />
    <vehicle id="veh_22" type="2" route="2" color="1.000000,1.000000,0.000000" depart="90" />
    <vehicle id="veh_23" type="1" route="4" color="1.000000,1.000000,1.000000" depart="90" />
    <vehicle id="veh_24" type="1" route="0" color="0.000000,1.000000,0.000000" depart="92" />
    <vehicle id="veh_25" type="2" route="3" color="1.000000,1.000000,1.000000" depart="92" />
    <vehicle id="veh_26" type="3" route="1" color="0.000000,0.000000,1.000000" depart="98" />
    <vehicle id="veh_27" type="2" route="3" color="0.000000,1.000000,0.000000" depart="98" />
    <vehicle id="veh_28" type="1" route="1" color="1.000000,0.000000,1.000000" depart="100" />
    <vehicle id="veh_29" type="0" route="3" color="1.000000,1.000000,0.000000" depart="100" />
    <vehicle id="veh_30" type="0" route="1" color="0.000000,1.000000,1.000000" depart="104" />
    <vehicle id="veh_31" type="2" route="4" color="0.000000,0.000000,1.000000" depart="104" />
    <vehicle id="veh_32" type="3" route="2" color="1.000000,0.000000,0.000000" depart="111" />
    <vehicle id="veh_33" type="0" route="4" color="1.000000,0.000000,0.000000" depart="111" />
    <vehicle id="veh_34" type="2" route="0" color="1.000000,0.000000,0.000000" depart="113" />
    <vehicle id="veh_35" type="2" route="5" color="1.000000,1.000000,1.000000" depart="113" />
    <vehicle id="veh_36" type="1" route="1" color="0.000000,1.000000,0.000000" depart="117" />
    <vehicle id="veh_37" type="2" route="3" color="1.000000,0.000000,1.000000" depart="117" />
    <vehicle id="veh_38" type="0" route="1" color="1.000000,0.000000,1.000000" depart="120" />
    <vehicle id="veh_39" type="3" route="3" color="0.000000,1.000000,1.000000" depart="120" />
    <vehicle id="veh_40" type="3" route="1" color="1.000000,0.000000,1.000000" depart="123" />
    <vehicle id="veh_41" type="2" route="3" color="1.000000,1.000000,1.000000" depart="123" />
    <vehicle id="veh_42" type="2" route="0" color="0.000000,0.000000,1.000000" depart="124" />
    <vehicle id="veh_43" type="0" route="4" color="1.000000,0.000000,0.000000" depart="124" />
    <vehicle id="veh_44" type="2" route="2" color="1.000000,0.000000,0.000000" depart="127" />
    <vehicle id="veh_45" type="1" route="5" color="0.000000,1.000000,1.000000" depart="127" />
    <vehicle id="veh_46" type="1" route="2" color="0.000000,0.000000,1.000000" depart="135" />
    <vehicle id="veh_47" type="3" route="5" color="1.000000,0.000000,0.000000" depart="135" />
    <vehicle id="veh_48" type="0" route="2" color="1.000000,1.000000,1.000000" depart="150" />
    <vehicle id="veh_49" type="2" route="5" color="1.000000,0.000000,0.000000" depart="150" />
    <vehicle id="veh_50" type="2" route="1" color="1.000000,0.000000,0.000000" depart="155" />
    <vehicle id="veh_51" type="0" route="5" color="1.000000,0.000000,0.000000" depart="155" />
    <vehicle id="veh_52" type="3" route="0" color="0.000000,1.000000,0.000000" depart="160" />
    <vehicle id="veh_53" type="0" route="4" color="0.000000,1.000000,1.000000" depart="160" />
    <vehicle id="veh_54" type="0" route="0" color="1.000000,0.000000,0.000000" depart="163" />
    <vehicle id="veh_55" type="1" route="4" color="1.000000,1.000000,0.000000" depart="163" />
    <vehicle id="veh_56" type="2" route="0" color="1.000000,1.000000,0.000000" depart="166" />
    <vehicle id="veh_57" type="3" route="4" color="0.000000,1.000000,0.000000" depart="166" />
    <vehicle id="veh_58" type="1" route="0" color="1.000000,0.000000,1.000000" depart="171" />
    <vehicle id="veh_59" type="2" route="4" color="1.000000,1.000000,1.000000" depart="171" />
    <vehicle id="veh_60" type="2" route="0" color="0.000000,0.000000,1.000000" depart="172" />
    <vehicle id="veh_61" type="2" route="5" color="0.000000,0.000000,1.000000" depart="172" />
    <vehicle id="veh_62" type="0" route="0" color="1.000000,0.000000,0.000000" depart="177" />
    <vehicle id="veh_63" type="3" route="3" color="0.000000,0.000000,1.000000" depart="177" />
    <vehicle id="veh_64" type="1" route="2" color="0.000000,0.000000,1.000000" depart="179" />
    <vehicle id="veh_65" type="2" route="5" color="1.000000,0.000000,0.000000" depart="179" />
    <vehicle id="veh_66" type="2" route="0" color="0.000000,0.000000,1.000000" depart="181" />
    <vehicle id="veh_67" type="3" route="3" color="1.000000,1.000000,1.000000" depart="181" />
    <vehicle id="veh_68" type="0" route="2" color="0.000000,0.000000,1.000000" depart="182" />
    <vehicle id="veh_69" type="3" route="4" color="0.000000,1.000000,0.000000" depart="182" />
    <vehicle id="veh_70" type="1" route="2" color="1.000000,0.000000,1.000000" depart="185" />
    <vehicle id="veh_71" type="1" route="4" color="1.000000,0.000000,0.000000" depart="185" />
    <vehicle id="veh_72" type="1" route="2" color="0.000000,0.000000,1.000000" depart="206" />
    <vehicle id="veh_73" type="2" route="4" color="0.000000,1.000000,1.000000" depart="206" />
    <vehicle id="veh_74" type="1" route="0" color="1.000000,0.000000,0.000000" depart="207" />
    <vehicle id="veh_75" type="3" route="5" color="1.000000,0.000000,0.000000" depart="207" />
    <vehicle id="veh_76" type="3" route="2" color="1.000000,0.000000,1.000000" depart="213" />
    <vehicle id="veh_77" type="2" route="4" color="1.000000,1.000000,0.000000" depart="213" />
    <vehicle id="veh_78" type="2" route="0" color="0.000000,0.000000,1.000000" depart="219" />
    <vehicle id="veh_79" type="0" route="3" color="1.000000,1.000000,0.000000" depart="219" />
    <vehicle id="veh_80" type="3" route="0" color="0.000000,1.000000,1.000000" depart="225" />
    <vehicle id="veh_81" type="1" route="3" color="1.000000,1.000000,0.000000" depart="225" />
    <vehicle id="veh_82" type="0" route="2" color="1.000000,1.000000,1.000000" depart="227" />
    <vehicle id="veh_83" type="3" route="5" color="1.000000,1.000000,0.000000" depart="227" />
    <vehicle id="veh_84" type="2" route="1" color="1.000000,1.000000,0.000000" depart="232" />
    <vehicle id="veh_85" type="2" route="5" color="1.000000,1.000000,0.000000" depart="232" />
    <vehicle id="veh_86" type="3" route="0" color="1.000000,0.000000,0.000000" depart="236" />
    <vehicle id="veh_87" type="0" route="3" color="1.000000,0.000000,0.000000" depart="236" />
    <vehicle id="veh_88" type="3" route="2" color="1.000000,0.000000,0.000000" depart="237" />
    <vehicle id="veh_89" type="2" route="3" color="0.000000,1.000000,0.000000" depart="237" />
    <vehicle id="veh_90" type="0" route="0" color="0.000000,0.000000,1.000000" depart="247" />
    <vehicle id="veh_91" type="2" route="4" color="0.000000,1.000000,0.000000" depart="247" />
    <vehicle id="veh_92" type="0" route="8" color="1.000000,0.000000,1.000000" depart="247" />
    <vehicle id="veh_93" type="0" route="10" color="1.000000,0.000000,1.000000" depart="247" />
    <vehicle id="veh_94" type="1" route="0" color="0.000000,1.000000,0.000000" depart="253" />
    <vehicle id="veh_95" type="1" route="5" color="0.000000,0.000000,1.000000" depart="253" />
    <vehicle id="veh_96" type="1" route="8" color="1.000000,1.000000,1.000000" depart="253" />
    <vehicle id="veh_97" type="0" route="9" color="1.000000,0.000000,0.000000" depart="253" />
    <vehicle id="veh_98" type="3" route="0" color="1.000000,0.000000,1.000000" depart="258" />
    <vehicle id="veh_99" type="0" route="5" color="0.000000,1.000000,1.000000" depart="258" />
    <vehicle id="veh_100" type="3" route="6" color="0.000000,1.000000,0.000000" depart="258" />
    <vehicle id="veh_101" type="0" route="9" color="1.000000,1.000000,0.000000" depart="258" />
    <vehicle id="veh_102" type="0" route="2" color="0.000000,1.000000,1.000000" depart="259" />
    <vehicle id="veh_103" type="1" route="4" color="1.000000,0.000000,1.000000" depart="259" />
    <vehicle id="veh_104" type="1" route="7" color="1.000000,0.000000,1.000000" depart="259" />
    <vehicle id="veh_105" type="1" route="10" color="0.000000,1.000000,1.000000" depart="259" />
    <vehicle id="veh_106" type="0" route="2" color="1.000000,0.000000,0.000000" depart="267" />
    <vehicle id="veh_107" type="3" route="4" color="1.000000,0.000000,0.000000" depart="267" />
    <vehicle id="veh_108" type="0" route="7" color="1.000000,1.000000,0.000000" depart="267" />
    <vehicle id="veh_109" type="0" route="10" color="1.000000,0.000000,1.000000" depart="267" />
    <vehicle id="veh_110" type="3" route="1" color="0.000000,1.000000,1.000000" depart="270" />
    <vehicle id="veh_111" type="3" route="8" color="1.000000,0.000000,1.000000" depart="270" />
    <vehicle id="veh_112" type="3" route="11" color="0.000000,0.000000,1.000000" depart="270" />
    <vehicle id="veh_113" type="0" route="0" color="0.000000,1.000000,1.000000" depart="271" />
    <vehicle id="veh_114" type="3" route="7" color="1.000000,1.000000,1.000000" depart="271" />
    <vehicle id="veh_115" type="2" route="9" color="1.000000,0.000000,0.000000" depart="271" />
    <vehicle id="veh_116" type="3" route="0" color="1.000000,0.000000,0.000000" depart="274" />
    <vehicle id="veh_117" type="1" route="4" color="0.000000,1.000000,1.000000" depart="274" />
    <vehicle id="veh_118" type="1" route="8" color="1.000000,1.000000,0.000000" depart="274" />
    <vehicle id="veh_119" type="3" route="11" color="0.000000,0.000000,1.000000" depart="274" />
    <vehicle id="veh_120" type="2" route="0" color="1.000000,0.000000,0.000000" depart="278" />
    <vehicle id="veh_121" type="1" route="5" color="0.000000,1.000000,0.000000" depart="278" />
    <vehicle id="veh_122" type="2" route="8" color="1.000000,0.000000,0.000000" depart="278" />
    <vehicle id="veh_123" type="3" route="9" color="0.000000,0.000000,1.000000" depart="278" />
    <vehicle id="veh_124" type="1" route="2" color="0.000000,0.000000,1.000000" depart="284" />
    <vehicle id="veh_125" type="0" route="4" color="1.000000,1.000000,1.000000" depart="284" />
    <vehicle id="veh_126" type="1" route="7" color="0.000000,0.000000,1.000000" depart="284" />
    <vehicle id="veh_127" type="1" route="10" color="0.000000,1.000000,1.000000" depart="284" />
    <vehicle id="veh_128" type="0" route="2" color="1.000000,0.000000,1.000000" depart="286" />
    <vehicle id="veh_129" type="3" route="6" color="1.000000,0.000000,1.000000" depart="286" />
    <vehicle id="veh_130" type="2" route="10" color="1.000000,0.000000,1.000000" depart="286" />
    <vehicle id="veh_131" type="0" route="0" color="1.000000,0.000000,1.000000" depart="293" />
    <vehicle id="veh_132" type="2" route="5" color="1.000000,0.000000,1.000000" depart="293" />
    <vehicle id="veh_133" type="0" route="8" color="1.000000,0.000000,0.000000" depart="293" />
    <vehicle id="veh_134" type="2" route="11" color="0.000000,1.000000,0.000000" depart="293" />
    <vehicle id="veh_135" type="3" route="2" color="1.000000,1.000000,1.000000" depart="302" />
    <vehicle id="veh_136" type="1" route="4" color="1.000000,0.000000,0.000000" depart="302" />
    <vehicle id="veh_137" type="0" route="6" color="1.000000,1.000000,0.000000" depart="302" />
    <vehicle id="veh_138" type="2" route="11" color="0.000000,1.000000,1.000000" depart="302" />
    <vehicle id="veh_139" type="3" route="0" color="0.000000,0.000000,1.000000" depart="306" />
    <vehicle id="veh_140" type="1" route="3" color="1.000000,0.000000,0.000000" depart="306" />
    <vehicle id="veh_141" type="3" route="8" color="1.000000,0.000000,0.000000" depart="306" />
    <vehicle id="veh_142" type="3" route="9" color="1.000000,1.000000,1.000000" depart="306" />
    <vehicle id="veh_143" type="3" route="0" color="1.000000,0.000000,0.000000" depart="310" />
    <vehicle id="veh_144" type="2" route="3" color="1.000000,1.000000,1.000000" depart="310" />
    <vehicle id="veh_145" type="2" route="8" color="1.000000,1.000000,1.000000" depart="310" />
    <vehicle id="veh_146" type="3" route="10" color="1.000000,1.000000,0.000000" depart="310" />
    <vehicle id="veh_147" type="3" route="0" color="0.000000,1.000000,0.000000" depart="312" />
    <vehicle id="veh_148" type="1" route="3" color="1.000000,0.000000,0.000000" depart="312" />
    <vehicle id="veh_149" type="1" route="7" color="1.000000,0.000000,0.000000" depart="312" />
    <vehicle id="veh_150" type="1" route="11" color="0.000000,1.000000,1.000000" depart="312" />
    <vehicle id="veh_151" type="2" route="0" color="1.000000,0.000000,1.000000" depart="315" />
    <vehicle id="veh_152" type="3" route="3" color="1.000000,1.000000,0.000000" depart="315" />
    <vehicle id="veh_153" type="1" route="8" color="0.000000,0.000000,1.000000" depart="315" />
    <vehicle id="veh_154" type="3" route="11" color="1.000000,1.000000,0.000000" depart="315" />
    <vehicle id="veh_155" type="2" route="0" color="0.000000,0.000000,1.000000" depart="316" />
    <vehicle id="veh_156" type="2" route="3" color="1.000000,1.000000,0.000000" depart="316" />
    <vehicle id="veh_157" type="3" route="7" color="1.000000,0.000000,0.000000" depart="316" />
    <vehicle id="veh_158" type="1" route="11" color="1.000000,0.000000,1.000000" depart="316" />
    <vehicle id="veh_159" type="2" route="2" color="1.000000,1.000000,1.000000" depart="324" />
    <vehicle id="veh_160" type="2" route="3" color="1.000000,1.000000,1.000000" depart="324" />
    <vehicle id="veh_161" type="3" route="8" color="1.000000,0.000000,0.000000" depart="324" />
    <vehicle id="veh_162" type="2" route="9" color="1.000000,1.000000,1.000000" depart="324" />
    <vehicle id="veh_163" type="2" route="1" color="1.000000,0.000000,1.000000" depart="326" />
    <vehicle id="veh_164" type="1" route="3" color="1.000000,1.000000,0.000000" depart="326" />
    <vehicle id="veh_165" type="2" route="7" color="0.000000,0.000000,1.000000" depart="326" />
    <vehicle id="veh_166" type="3" route="11" color="1.000000,0.000000,1.000000" depart="326" />
    <vehicle id="veh_167" type="2" route="1" color="1.000000,0.000000,0.000000" depart="331" />
    <vehicle id="veh_168" type="0" route="4" color="0.000000,1.000000,0.000000" depart="331" />
    <vehicle id="veh_169" type="1" route="7" color="1.000000,0.000000,0.000000" depart="331" />
    <vehicle id="veh_170" type="1" route="11" color="1.000000,1.000000,1.000000" depart="331" />
    <vehicle id="veh_171" type="1" route="2" color="1.000000,0.000000,0.000000" depart="336" />
    <vehicle id="veh_172" type="3" route="4" color="1.000000,1.000000,0.000000" depart="336" />
    <vehicle id="veh_173" type="0" route="8" color="1.000000,1.000000,0.000000" depart="336" />
    <vehicle id="veh_174" type="1" route="9" color="1.000000,0.000000,1.000000" depart="336" />
    <vehicle id="veh_175" type="3" route="0" color="0.000000,1.000000,0.000000" depart="340" />
    <vehicle id="veh_176" type="1" route="4" color="0.000000,1.000000,1.000000" depart="340" />
    <vehicle id="veh_177" type="3" route="8" color="0.000000,0.000000,1.000000" depart="340" />
    <vehicle id="veh_178" type="3" route="10" color="0.000000,1.000000,0.000000" depart="340" />
    <vehicle id="veh_179" type="3" route="2" color="0.000000,0.000000,1.000000" depart="344" />
    <vehicle id="veh_180" type="2" route="3" color="0.000000,1.000000,1.000000" depart="344" />
    <vehicle id="veh_181" type="1" route="7" color="1.000000,1.000000,1.000000" depart="344" />
    <vehicle id="veh_182" type="1" route="9" color="0.000000,1.000000,1.000000" depart="344" />
    <vehicle id="veh_183" type="3" route="1" color="0.000000,1.000000,0.000000" depart="350" />
    <vehicle id="veh_184" type="1" route="3" color="0.000000,0.000000,1.000000" depart="350" />
    <vehicle id="veh_185" type="3" route="8" color="1.000000,0.000000,0.000000" depart="350" />
    <vehicle id="veh_186" type="3" route="11" color="1.000000,0.000000,0.000000" depart="350" />
    <vehicle id="veh_187" type="0" route="2" color="1.000000,0.000000,0.000000" depart="353" />
    <vehicle id="veh_188" type="3" route="5" color="0.000000,1.000000,1.000000" depart="353" />
    <vehicle id="veh_189" type="2" route="7" color="0.000000,0.000000,1.000000" depart="353" />
    <vehicle id="veh_190" type="0" route="11" color="1.000000,0.000000,0.000000" depart="353" />
    <vehicle id="veh_191" type="2" route="1" color="0.000000,1.000000,1.000000" depart="356" />
    <vehicle id="veh_192" type="1" route="3" color="1.000000,1.000000,1.000000" depart="356" />
    <vehicle id="veh_193" type="0" route="7" color="0.000000,1.000000,0.000000" depart="356" />
    <vehicle id="veh_194" type="0" route="10" color="1.000000,0.000000,0.000000" depart="356" />
    <vehicle id="veh_195" type="0" route="1" color="0.000000,0.000000,1.000000" depart="357" />
    <vehicle id="veh_196" type="2" route="3" color="0.000000,1.000000,0.000000" depart="357" />
    <vehicle id="veh_197" type="1" route="8" color="1.000000,0.000000,0.000000" depart="357" />
    <vehicle id="veh_198" type="3" route="11" color="1.000000,0.000000,0.000000" depart="357" />
    <vehicle id="veh_199" type="3" route="1" color="1.000000,0.000000,0.000000" depart="366" />
    <vehicle id="veh_200" type="1" route="4" color="0.000000,0.000000,1.000000" depart="366" />
    <vehicle id="veh_201" type="1" route="0" color="0.000000,0.000000,1.000000" depart="375" />
    <vehicle id="veh_202" type="3" route="2" color="1.000000,0.000000,0.000000" depart="381" />
    <vehicle id="veh_203" type="3" route="4" color="1.000000,1.000000,0.000000" depart="381" />
    <vehicle id="veh_204" type="3" route="6" color="1.000000,0.000000,0.000000" depart="381" />
    <vehicle id="veh_205" type="0" route="10" color="1.000000,0.000000,0.000000" depart="381" />
    <vehicle id="veh_206" type="1" route="0" color="1.000000,0.000000,1.000000" depart="385" />
    <vehicle id="veh_207" type="0" route="4" color="0.000000,1.000000,0.000000" depart="385" />
    <vehicle id="veh_208" type="2" route="7" color="0.000000,1.000000,1.000000" depart="385" />
    <vehicle id="veh_209" type="0" route="9" color="0.000000,1.000000,1.000000" depart="385" />
    <vehicle id="veh_210" type="0" route="1" color="1.000000,1.000000,0.000000" depart="389" />
    <vehicle id="veh_211" type="0" route="5" color="0.000000,1.000000,1.000000" depart="389" />
    <vehicle id="veh_212" type="1" route="7" color="1.000000,0.000000,0.000000" depart="389" />
    <vehicle id="veh_213" type="1" route="9" color="1.000000,1.000000,1.000000" depart="389" />
    <vehicle id="veh_214" type="1" route="0" color="1.000000,0.000000,0.000000" depart="395" />
    <vehicle id="veh_215" type="2" route="5" color="1.000000,1.000000,0.000000" depart="395" />
    <vehicle id="veh_216" type="3" route="7" color="0.000000,1.000000,1.000000" depart="395" />
    <vehicle id="veh_217" type="1" route="11" color="1.000000,0.000000,0.000000" depart="395" />
    <vehicle id="veh_218" type="0" route="1" color="1.000000,1.000000,1.000000" depart="399" />
    <vehicle id="veh_219" type="2" route="0" color="1.000000,0.000000,1.000000" depart="401" />
    <vehicle id="veh_220" type="1" route="5" color="0.000000,1.000000,1.000000" depart="401" />
    <vehicle id="veh_221" type="2" route="8" color="1.000000,0.000000,0.000000" depart="401" />
    <vehicle id="veh_222" type="3" route="10" color="1.000000,1.000000,0.000000" depart="401" />
    <vehicle id="veh_223" type="0" route="1" color="1.000000,0.000000,0.000000" depart="402" />
    <vehicle id="veh_224" type="0" route="0" color="0.000000,1.000000,1.000000" depart="409" />
    <vehicle id="veh_225" type="0" route="3" color="0.000000,0.000000,1.000000" depart="409" />
    <vehicle id="veh_226" type="3" route="8" color="1.000000,0.000000,0.000000" depart="409" />
    <vehicle id="veh_227" type="3" route="10" color="1.000000,0.000000,1.000000" depart="409" />
    <vehicle id="veh_228" type="0" route="1" color="0.000000,1.000000,1.000000" depart="411" />
    <vehicle id="veh_229" type="0" route="5" color="1.000000,1.000000,0.000000" depart="411" />
    <vehicle id="veh_230" type="2" route="6" color="1.000000,1.000000,0.000000" depart="411" />
    <vehicle id="veh_231" type="0" route="9" color="0.000000,1.000000,0.000000" depart="411" />
    <vehicle id="veh_232" type="0" route="0" color="0.000000,0.000000,1.000000" depart="414" />
    <vehicle id="veh_233" type="2" route="2" color="0.000000,1.000000,1.000000" depart="415" />
    <vehicle id="veh_234" type="2" route="5" color="1.000000,1.000000,1.000000" depart="415" />
    <vehicle id="veh_235" type="3" route="8" color="1.000000,0.000000,1.000000" depart="415" />
    <vehicle id="veh_236" type="1" route="10" color="1.000000,0.000000,0.000000" depart="415" />
    <vehicle id="veh_237" type="1" route="2" color="1.000000,0.000000,0.000000" depart="416" />
    <vehicle id="veh_238" type="3" route="5" color="1.000000,1.000000,0.000000" depart="416" />
    <vehicle id="veh_239" type="2" route="7" color="0.000000,1.000000,0.000000" depart="416" />
    <vehicle id="veh_240" type="1" route="10" color="1.000000,0.000000,0.000000" depart="416" />
    <vehicle id="veh_241" type="1" route="2" color="1.000000,0.000000,0.000000" depart="417" />
    <vehicle id="veh_242" type="3" route="5" color="0.000000,1.000000,1.000000" depart="417" />
    <vehicle id="veh_243" type="3" route="0" color="0.000000,1.000000,1.000000" depart="421" />
    <vehicle id="veh_244" type="1" route="5" color="0.000000,1.000000,1.000000" depart="421" />
    <vehicle id="veh_245" type="1" route="7" color="0.000000,0.000000,1.000000" depart="421" />
    <vehicle id="veh_246" type="3" route="9" color="0.000000,0.000000,1.000000" depart="421" />
    <vehicle id="veh_247" type="0" route="2" color="0.000000,1.000000,1.000000" depart="422" />
    <vehicle id="veh_248" type="2" route="3" color="1.000000,1.000000,1.000000" depart="422" />
    <vehicle id="veh_249" type="0" route="6" color="0.000000,1.000000,0.000000" depart="422" />
    <vehicle id="veh_250" type="3" route="9" color="1.000000,0.000000,0.000000" depart="422" />
    <vehicle id="veh_251" type="0" route="0" color="1.000000,1.000000,0.000000" depart="423" />
    <vehicle id="veh_252" type="3" route="5" color="1.000000,0.000000,1.000000" depart="423" />
    <vehicle id="veh_253" type="0" route="1" color="0.000000,1.000000,0.000000" depart="427" />
    <vehicle id="veh_254" type="2" route="4" color="0.000000,1.000000,1.000000" depart="427" />
    <vehicle id="veh_255" type="1" route="7" color="1.000000,0.000000,1.000000" depart="427" />
    <vehicle id="veh_256" type="1" route="10" color="0.000000,1.000000,1.000000" depart="427" />
    <vehicle id="veh_257" type="1" route="2" color="1.000000,0.000000,1.000000" depart="429" />
    <vehicle id="veh_258" type="2" route="5" color="1.000000,0.000000,1.000000" depart="429" />
    <vehicle id="veh_259" type="0" route="6" color="1.000000,1.000000,0.000000" depart="429" />
    <vehicle id="veh_260" type="1" route="10" color="1.000000,0.000000,0.000000" depart="429" />
    <vehicle id="veh_261" type="3" route="2" color="1.000000,0.000000,1.000000" depart="432" />
    <vehicle id="veh_262" type="2" route="3" color="1.000000,0.000000,0.000000" depart="432" />
    <vehicle id="veh_263" type="1" route="6" color="1.000000,1.000000,0.000000" depart="432" />
    <vehicle id="veh_264" type="1" route="11" color="1.000000,0.000000,0.000000" depart="432" />
    <vehicle id="veh_265" type="3" route="2" color="1.000000,1.000000,1.000000" depart="433" />
    <vehicle id="veh_266" type="0" route="5" color="1.000000,0.000000,0.000000" depart="433" />
    <vehicle id="veh_267" type="1" route="8" color="1.000000,0.000000,0.000000" depart="433" />
    <vehicle id="veh_268" type="0" route="9" color="1.000000,0.000000,1.000000" depart="433" />
    <vehicle id="veh_269" type="3" route="0" color="1.000000,0.000000,0.000000" depart="434" />
    <vehicle id="veh_270" type="0" route="5" color="1.000000,0.000000,0.000000" depart="434" />
    <vehicle id="veh_271" type="2" route="8" color="1.000000,0.000000,0.000000" depart="434" />
    <vehicle id="veh_272" type="0" route="10" color="1.000000,1.000000,0.000000" depart="434" />
    <vehicle id="veh_273" type="1" route="2" color="1.000000,0.000000,0.000000" depart="437" />
    <vehicle id="veh_274" type="0" route="3" color="0.000000,1.000000,1.000000" depart="437" />
    <vehicle id="veh_275" type="3" route="7" color="0.000000,0.000000,1.000000" depart="437" />
    <vehicle id="veh_276" type="0" route="10" color="0.000000,1.000000,0.000000" depart="437" />
    <vehicle id="veh_277" type="1" route="1" color="1.000000,0.000000,0.000000" depart="440" />
    <vehicle id="veh_278" type="2" route="3" color="1.000000,0.000000,0.000000" depart="440" />
    <vehicle id="veh_279" type="0" route="7" color="1.000000,0.000000,1.000000" depart="440" />
    <vehicle id="veh_280" type="0" route="11" color="0.000000,0.000000,1.000000" depart="440" />
    <vehicle id="veh_281" type="0" route="0" color="1.000000,0.000000,1.000000" depart="443" />
    <vehicle id="veh_282" type="3" route="5" color="1.000000,0.000000,1.000000" depart="443" />
    <vehicle id="veh_283" type="3" route="6" color="1.000000,1.000000,1.000000" depart="443" />
    <vehicle id="veh_284" type="3" route="9" color="1.000000,0.000000,0.000000" depart="443" />
    <vehicle id="veh_285" type="1" route="1" color="0.000000,0.000000,1.000000" depart="451" />
    <vehicle id="veh_286" type="2" route="4" color="1.000000,1.000000,0.000000" depart="451" />
    <vehicle id="veh_287" type="1" route="6" color="1.000000,0.000000,1.000000" depart="451" />
    <vehicle id="veh_288" type="2" route="9" color="1.000000,0.000000,1.000000" depart="451" />
    <vehicle id="veh_289" type="2" route="0" color="1.000000,1.000000,0.000000" depart="452" />
    <vehicle id="veh_290" type="3" route="4" color="0.000000,1.000000,0.000000" depart="452" />
    <vehicle id="veh_291" type="0" route="8" color="1.000000,0.000000,0.000000" depart="452" />
    <vehicle id="veh_292" type="2" route="9" color="1.000000,0.000000,1.000000" depart="452" />
    <vehicle id="veh_293" type="3" route="2" color="1.000000,0.000000,0.000000" depart="454" />
    <vehicle id="veh_294" type="3" route="3" color="0.000000,1.000000,1.000000" depart="454" />
    <vehicle id="veh_295" type="2" route="1" color="0.000000,1.000000,1.000000" depart="456" />
    <vehicle id="veh_296" type="0" route="4" color="1.000000,0.000000,1.000000" depart="456" />
    <vehicle id="veh_297" type="0" route="7" color="0.000000,0.000000,1.000000" depart="456" />
    <vehicle id="veh_298" type="3" route="10" color="1.000000,1.000000,0.000000" depart="456" />
    <vehicle id="veh_299" type="1" route="1" color="1.000000,0.000000,1.000000" depart="458" />